MODEL 1
REMARK VINA RESULT:      -3.1      0.000      0.000
REMARK  9 active torsions:
REMARK  status: ('A' for Active; 'I' for Inactive)
REMARK    1  A    between atoms: O_1  and  C_18 
REMARK    2  A    between atoms: N_2  and  C_8 
REMARK    3  A    between atoms: N_3  and  C_9 
REMARK    4  A    between atoms: N_3  and  C_14 
REMARK    5  A    between atoms: N_7  and  C_13 
REMARK    6  A    between atoms: N_7  and  C_20 
REMARK    7  A    between atoms: C_9  and  C_12 
REMARK    8  A    between atoms: C_9  and  C_18 
REMARK    9  A    between atoms: C_20  and  C_21 
ROOT
HETATM    1  O   UNK     0      -4.899  10.108  20.887  0.00  0.00    -0.399 OA
HETATM    2  H   UNK     0      -4.464  10.805  20.366  0.00  0.00     0.209 HD
ENDROOT
BRANCH   1   3
HETATM    3  C   UNK     0      -4.694  10.411  22.262  0.00  0.00     0.189 C 
BRANCH   3   4
HETATM    4  C   UNK     0      -3.682  11.550  22.384  0.00  0.00     0.122 C 
BRANCH   4   5
HETATM    5  N   UNK     0      -2.372  11.052  22.010  0.00  0.00    -0.216 N 
HETATM    6  H   UNK     0      -2.157  10.069  22.136  0.00  0.00     0.178 HD
BRANCH   5   7
HETATM    7  C   UNK     0      -1.407  11.830  21.398  0.00  0.00     0.726 A 
HETATM    8  N   UNK     0      -0.142  11.755  21.906  0.00  0.00    -0.042 NA
HETATM    9  C   UNK     0       0.708  12.547  21.237  0.00  0.00     0.183 A 
HETATM   10  N   UNK     0       2.043  12.721  21.469  0.00  0.00    -0.320 N 
HETATM   11  C   UNK     0       0.418  13.366  20.157  0.00  0.00     0.151 A 
HETATM   12  C   UNK     0       2.499  13.621  20.542  0.00  0.00     0.212 A 
HETATM   13  N   UNK     0       1.542  14.029  19.734  0.00  0.00    -0.236 NA
HETATM   14  C   UNK     0      -0.900  13.374  19.711  0.00  0.00     0.176 A 
HETATM   15  N   UNK     0      -1.814  12.598  20.341  0.00  0.00    -0.043 NA
BRANCH  10  16
HETATM   16  C   UNK     0       2.832  12.085  22.496  0.00  0.00     0.084 C 
HETATM   17  C   UNK     0       3.821  11.074  21.912  0.00  0.00     0.032 C 
HETATM   18  C   UNK     0       3.532  13.105  23.395  0.00  0.00     0.032 C 
ENDBRANCH  10  16
BRANCH  14  19
HETATM   19  N   UNK     0      -1.284  14.175  18.621  0.00  0.00    -0.368 N 
HETATM   20  H   UNK     0      -1.296  13.735  17.707  0.00  0.00     0.161 HD
BRANCH  19  21
HETATM   21  C   UNK     0      -1.643  15.556  18.753  0.00  0.00     0.160 C 
BRANCH  21  22
HETATM   22  C   UNK     0      -2.794  15.891  17.847  0.00  0.00    -0.041 A 
HETATM   23  C   UNK     0      -3.824  16.697  18.317  0.00  0.00     0.009 A 
HETATM   24  C   UNK     0      -4.892  17.010  17.477  0.00  0.00     0.001 A 
HETATM   25  C   UNK     0      -4.922  16.512  16.174  0.00  0.00     0.000 A 
HETATM   26  C   UNK     0      -3.885  15.704  15.711  0.00  0.00     0.001 A 
HETATM   27  C   UNK     0      -2.815  15.392  16.551  0.00  0.00     0.009 A 
ENDBRANCH  21  22
ENDBRANCH  19  21
ENDBRANCH  14  19
ENDBRANCH   5   7
ENDBRANCH   4   5
BRANCH   4  28
HETATM   28  C   UNK     0      -3.641  12.093  23.819  0.00  0.00     0.023 C 
HETATM   29  C   UNK     0      -3.638  13.616  23.872  0.00  0.00     0.007 C 
ENDBRANCH   4  28
ENDBRANCH   3   4
ENDBRANCH   1   3
TORSDOF 9
ENDMDL
MODEL 2
REMARK VINA RESULT:      -3.0      1.642      2.310
REMARK  9 active torsions:
REMARK  status: ('A' for Active; 'I' for Inactive)
REMARK    1  A    between atoms: O_1  and  C_18 
REMARK    2  A    between atoms: N_2  and  C_8 
REMARK    3  A    between atoms: N_3  and  C_9 
REMARK    4  A    between atoms: N_3  and  C_14 
REMARK    5  A    between atoms: N_7  and  C_13 
REMARK    6  A    between atoms: N_7  and  C_20 
REMARK    7  A    between atoms: C_9  and  C_12 
REMARK    8  A    between atoms: C_9  and  C_18 
REMARK    9  A    between atoms: C_20  and  C_21 
ROOT
HETATM    1  O   UNK     0      -3.388  13.802  22.913  0.00  0.00    -0.399 OA
HETATM    2  H   UNK     0      -3.629  14.358  23.675  0.00  0.00     0.209 HD
ENDROOT
BRANCH   1   3
HETATM    3  C   UNK     0      -2.461  12.826  23.374  0.00  0.00     0.189 C 
BRANCH   3   4
HETATM    4  C   UNK     0      -2.178  11.827  22.252  0.00  0.00     0.122 C 
BRANCH   4   5
HETATM    5  N   UNK     0      -2.415  12.477  20.977  0.00  0.00    -0.216 N 
HETATM    6  H   UNK     0      -3.367  12.641  20.671  0.00  0.00     0.178 HD
BRANCH   5   7
HETATM    7  C   UNK     0      -1.405  12.976  20.177  0.00  0.00     0.726 A 
HETATM    8  N   UNK     0      -0.193  12.351  20.252  0.00  0.00    -0.042 NA
HETATM    9  C   UNK     0       0.707  12.916  19.435  0.00  0.00     0.183 A 
HETATM   10  N   UNK     0       2.012  12.553  19.253  0.00  0.00    -0.320 N 
HETATM   11  C   UNK     0       0.511  13.997  18.590  0.00  0.00     0.151 A 
HETATM   12  C   UNK     0       2.543  13.411  18.327  0.00  0.00     0.212 A 
HETATM   13  N   UNK     0       1.663  14.295  17.906  0.00  0.00    -0.236 NA
HETATM   14  C   UNK     0      -0.758  14.567  18.583  0.00  0.00     0.176 A 
HETATM   15  N   UNK     0      -1.719  14.047  19.385  0.00  0.00    -0.043 NA
BRANCH  10  16
HETATM   16  C   UNK     0       2.707  11.473  19.910  0.00  0.00     0.084 C 
HETATM   17  C   UNK     0       2.708  11.634  21.431  0.00  0.00     0.032 C 
HETATM   18  C   UNK     0       2.169  10.105  19.488  0.00  0.00     0.032 C 
ENDBRANCH  10  16
BRANCH  14  19
HETATM   19  N   UNK     0      -1.047  15.667  17.756  0.00  0.00    -0.368 N 
HETATM   20  H   UNK     0      -0.807  16.586  18.112  0.00  0.00     0.161 HD
BRANCH  19  21
HETATM   21  C   UNK     0      -1.655  15.537  16.466  0.00  0.00     0.160 C 
BRANCH  21  22
HETATM   22  C   UNK     0      -3.109  15.916  16.527  0.00  0.00    -0.041 A 
HETATM   23  C   UNK     0      -3.580  16.654  17.606  0.00  0.00     0.009 A 
HETATM   24  C   UNK     0      -4.928  17.007  17.662  0.00  0.00     0.001 A 
HETATM   25  C   UNK     0      -5.794  16.618  16.639  0.00  0.00     0.000 A 
HETATM   26  C   UNK     0      -5.311  15.878  15.561  0.00  0.00     0.001 A 
HETATM   27  C   UNK     0      -3.962  15.526  15.504  0.00  0.00     0.009 A 
ENDBRANCH  21  22
ENDBRANCH  19  21
ENDBRANCH  14  19
ENDBRANCH   5   7
ENDBRANCH   4   5
BRANCH   4  28
HETATM   28  C   UNK     0      -3.078  10.591  22.381  0.00  0.00     0.023 C 
HETATM   29  C   UNK     0      -4.371  10.720  21.587  0.00  0.00     0.007 C 
ENDBRANCH   4  28
ENDBRANCH   3   4
ENDBRANCH   1   3
TORSDOF 9
ENDMDL
MODEL 3
REMARK VINA RESULT:      -3.0      1.743      2.554
REMARK  9 active torsions:
REMARK  status: ('A' for Active; 'I' for Inactive)
REMARK    1  A    between atoms: O_1  and  C_18 
REMARK    2  A    between atoms: N_2  and  C_8 
REMARK    3  A    between atoms: N_3  and  C_9 
REMARK    4  A    between atoms: N_3  and  C_14 
REMARK    5  A    between atoms: N_7  and  C_13 
REMARK    6  A    between atoms: N_7  and  C_20 
REMARK    7  A    between atoms: C_9  and  C_12 
REMARK    8  A    between atoms: C_9  and  C_18 
REMARK    9  A    between atoms: C_20  and  C_21 
ROOT
HETATM    1  O   UNK     0      -5.463  13.105  23.186  0.00  0.00    -0.399 OA
HETATM    2  H   UNK     0      -5.269  13.424  24.085  0.00  0.00     0.209 HD
ENDROOT
BRANCH   1   3
HETATM    3  C   UNK     0      -5.650  11.697  23.264  0.00  0.00     0.189 C 
BRANCH   3   4
HETATM    4  C   UNK     0      -4.342  10.991  22.909  0.00  0.00     0.122 C 
BRANCH   4   5
HETATM    5  N   UNK     0      -3.785  11.612  21.721  0.00  0.00    -0.216 N 
HETATM    6  H   UNK     0      -4.408  11.999  21.021  0.00  0.00     0.178 HD
BRANCH   5   7
HETATM    7  C   UNK     0      -2.430  11.790  21.519  0.00  0.00     0.726 A 
HETATM    8  N   UNK     0      -1.597  11.367  22.515  0.00  0.00    -0.042 NA
HETATM    9  C   UNK     0      -0.310  11.588  22.212  0.00  0.00     0.183 A 
HETATM   10  N   UNK     0       0.787  11.293  22.970  0.00  0.00    -0.320 N 
HETATM   11  C   UNK     0       0.193  12.165  21.056  0.00  0.00     0.151 A 
HETATM   12  C   UNK     0       1.887  11.696  22.261  0.00  0.00     0.212 A 
HETATM   13  N   UNK     0       1.563  12.227  21.100  0.00  0.00    -0.236 NA
HETATM   14  C   UNK     0      -0.734  12.565  20.099  0.00  0.00     0.176 A 
HETATM   15  N   UNK     0      -2.054  12.372  20.339  0.00  0.00    -0.043 NA
BRANCH  10  16
HETATM   16  C   UNK     0       0.796  10.675  24.274  0.00  0.00     0.084 C 
HETATM   17  C   UNK     0       1.990   9.735  24.453  0.00  0.00     0.032 C 
HETATM   18  C   UNK     0       0.718  11.709  25.398  0.00  0.00     0.032 C 
ENDBRANCH  10  16
BRANCH  14  19
HETATM   19  N   UNK     0      -0.314  13.160  18.896  0.00  0.00    -0.368 N 
HETATM   20  H   UNK     0      -0.188  12.546  18.098  0.00  0.00     0.161 HD
BRANCH  19  21
HETATM   21  C   UNK     0      -0.059  14.563  18.766  0.00  0.00     0.160 C 
BRANCH  21  22
HETATM   22  C   UNK     0      -1.341  15.314  18.539  0.00  0.00    -0.041 A 
HETATM   23  C   UNK     0      -1.992  15.204  17.316  0.00  0.00     0.009 A 
HETATM   24  C   UNK     0      -3.182  15.899  17.105  0.00  0.00     0.001 A 
HETATM   25  C   UNK     0      -3.710  16.701  18.118  0.00  0.00     0.000 A 
HETATM   26  C   UNK     0      -3.049  16.805  19.341  0.00  0.00     0.001 A 
HETATM   27  C   UNK     0      -1.859  16.108  19.553  0.00  0.00     0.009 A 
ENDBRANCH  21  22
ENDBRANCH  19  21
ENDBRANCH  14  19
ENDBRANCH   5   7
ENDBRANCH   4   5
BRANCH   4  28
HETATM   28  C   UNK     0      -4.579   9.498  22.652  0.00  0.00     0.023 C 
HETATM   29  C   UNK     0      -5.552   8.876  23.646  0.00  0.00     0.007 C 
ENDBRANCH   4  28
ENDBRANCH   3   4
ENDBRANCH   1   3
TORSDOF 9
ENDMDL
MODEL 4
REMARK VINA RESULT:      -3.0      4.626      7.692
REMARK  9 active torsions:
REMARK  status: ('A' for Active; 'I' for Inactive)
REMARK    1  A    between atoms: O_1  and  C_18 
REMARK    2  A    between atoms: N_2  and  C_8 
REMARK    3  A    between atoms: N_3  and  C_9 
REMARK    4  A    between atoms: N_3  and  C_14 
REMARK    5  A    between atoms: N_7  and  C_13 
REMARK    6  A    between atoms: N_7  and  C_20 
REMARK    7  A    between atoms: C_9  and  C_12 
REMARK    8  A    between atoms: C_9  and  C_18 
REMARK    9  A    between atoms: C_20  and  C_21 
ROOT
HETATM    1  O   UNK     0      -4.795  14.090  25.744  0.00  0.00    -0.399 OA
HETATM    2  H   UNK     0      -4.710  14.749  26.455  0.00  0.00     0.209 HD
ENDROOT
BRANCH   1   3
HETATM    3  C   UNK     0      -5.918  14.460  24.952  0.00  0.00     0.189 C 
BRANCH   3   4
HETATM    4  C   UNK     0      -6.538  13.207  24.335  0.00  0.00     0.122 C 
BRANCH   4   5
HETATM    5  N   UNK     0      -5.762  12.828  23.168  0.00  0.00    -0.216 N 
HETATM    6  H   UNK     0      -5.740  13.444  22.363  0.00  0.00     0.178 HD
BRANCH   5   7
HETATM    7  C   UNK     0      -4.964  11.701  23.117  0.00  0.00     0.726 A 
HETATM    8  N   UNK     0      -3.614  11.902  23.129  0.00  0.00    -0.042 NA
HETATM    9  C   UNK     0      -2.941  10.743  23.077  0.00  0.00     0.183 A 
HETATM   10  N   UNK     0      -1.586  10.566  23.073  0.00  0.00    -0.320 N 
HETATM   11  C   UNK     0      -3.474   9.465  23.018  0.00  0.00     0.151 A 
HETATM   12  C   UNK     0      -1.357   9.216  23.010  0.00  0.00     0.212 A 
HETATM   13  N   UNK     0      -2.477   8.523  22.976  0.00  0.00    -0.236 NA
HETATM   14  C   UNK     0      -4.862   9.363  23.009  0.00  0.00     0.176 A 
HETATM   15  N   UNK     0      -5.606  10.494  23.060  0.00  0.00    -0.043 NA
BRANCH  10  16
HETATM   16  C   UNK     0      -0.579  11.597  23.122  0.00  0.00     0.084 C 
HETATM   17  C   UNK     0       0.650  11.159  23.921  0.00  0.00     0.032 C 
HETATM   18  C   UNK     0      -0.198  12.093  21.727  0.00  0.00     0.032 C 
ENDBRANCH  10  16
BRANCH  14  19
HETATM   19  N   UNK     0      -5.489   8.106  22.951  0.00  0.00    -0.368 N 
HETATM   20  H   UNK     0      -5.493   7.635  22.052  0.00  0.00     0.161 HD
BRANCH  19  21
HETATM   21  C   UNK     0      -6.108   7.487  24.085  0.00  0.00     0.160 C 
BRANCH  21  22
HETATM   22  C   UNK     0      -7.605   7.531  23.958  0.00  0.00    -0.041 A 
HETATM   23  C   UNK     0      -8.327   8.476  24.677  0.00  0.00     0.009 A 
HETATM   24  C   UNK     0      -9.716   8.517  24.559  0.00  0.00     0.001 A 
HETATM   25  C   UNK     0     -10.371   7.612  23.725  0.00  0.00     0.000 A 
HETATM   26  C   UNK     0      -9.639   6.667  23.008  0.00  0.00     0.001 A 
HETATM   27  C   UNK     0      -8.249   6.626  23.124  0.00  0.00     0.009 A 
ENDBRANCH  21  22
ENDBRANCH  19  21
ENDBRANCH  14  19
ENDBRANCH   5   7
ENDBRANCH   4   5
BRANCH   4  28
HETATM   28  C   UNK     0      -7.995  13.461  23.930  0.00  0.00     0.023 C 
HETATM   29  C   UNK     0      -8.872  12.224  24.076  0.00  0.00     0.007 C 
ENDBRANCH   4  28
ENDBRANCH   3   4
ENDBRANCH   1   3
TORSDOF 9
ENDMDL
MODEL 5
REMARK VINA RESULT:      -2.9      1.495      1.903
REMARK  9 active torsions:
REMARK  status: ('A' for Active; 'I' for Inactive)
REMARK    1  A    between atoms: O_1  and  C_18 
REMARK    2  A    between atoms: N_2  and  C_8 
REMARK    3  A    between atoms: N_3  and  C_9 
REMARK    4  A    between atoms: N_3  and  C_14 
REMARK    5  A    between atoms: N_7  and  C_13 
REMARK    6  A    between atoms: N_7  and  C_20 
REMARK    7  A    between atoms: C_9  and  C_12 
REMARK    8  A    between atoms: C_9  and  C_18 
REMARK    9  A    between atoms: C_20  and  C_21 
ROOT
HETATM    1  O   UNK     0      -3.317  10.841  20.980  0.00  0.00    -0.399 OA
HETATM    2  H   UNK     0      -3.130  11.685  20.533  0.00  0.00     0.209 HD
ENDROOT
BRANCH   1   3
HETATM    3  C   UNK     0      -3.178  11.058  22.379  0.00  0.00     0.189 C 
BRANCH   3   4
HETATM    4  C   UNK     0      -1.836  11.736  22.655  0.00  0.00     0.122 C 
BRANCH   4   5
HETATM    5  N   UNK     0      -0.923  11.422  21.572  0.00  0.00    -0.216 N 
HETATM    6  H   UNK     0      -0.716  10.453  21.359  0.00  0.00     0.178 HD
BRANCH   5   7
HETATM    7  C   UNK     0      -0.373  12.377  20.738  0.00  0.00     0.726 A 
HETATM    8  N   UNK     0       0.972  12.587  20.846  0.00  0.00    -0.042 NA
HETATM    9  C   UNK     0       1.396  13.531  19.992  0.00  0.00     0.183 A 
HETATM   10  N   UNK     0       2.670  13.994  19.827  0.00  0.00    -0.320 N 
HETATM   11  C   UNK     0       0.630  14.246  19.084  0.00  0.00     0.151 A 
HETATM   12  C   UNK     0       2.627  14.951  18.848  0.00  0.00     0.212 A 
HETATM   13  N   UNK     0       1.409  15.127  18.379  0.00  0.00    -0.236 NA
HETATM   14  C   UNK     0      -0.732  13.961  19.049  0.00  0.00     0.176 A 
HETATM   15  N   UNK     0      -1.230  13.018  19.885  0.00  0.00    -0.043 NA
BRANCH  10  16
HETATM   16  C   UNK     0       3.846  13.563  20.543  0.00  0.00     0.084 C 
HETATM   17  C   UNK     0       4.450  12.293  19.941  0.00  0.00     0.032 C 
HETATM   18  C   UNK     0       4.884  14.680  20.664  0.00  0.00     0.032 C 
ENDBRANCH  10  16
BRANCH  14  19
HETATM   19  N   UNK     0      -1.584  14.638  18.159  0.00  0.00    -0.368 N 
HETATM   20  H   UNK     0      -1.808  14.168  17.289  0.00  0.00     0.161 HD
BRANCH  19  21
HETATM   21  C   UNK     0      -2.127  15.935  18.432  0.00  0.00     0.160 C 
BRANCH  21  22
HETATM   22  C   UNK     0      -3.383  16.159  17.637  0.00  0.00    -0.041 A 
HETATM   23  C   UNK     0      -4.438  16.863  18.205  0.00  0.00     0.009 A 
HETATM   24  C   UNK     0      -5.603  17.073  17.467  0.00  0.00     0.001 A 
HETATM   25  C   UNK     0      -5.704  16.575  16.168  0.00  0.00     0.000 A 
HETATM   26  C   UNK     0      -4.640  15.869  15.606  0.00  0.00     0.001 A 
HETATM   27  C   UNK     0      -3.474  15.661  16.344  0.00  0.00     0.009 A 
ENDBRANCH  21  22
ENDBRANCH  19  21
ENDBRANCH  14  19
ENDBRANCH   5   7
ENDBRANCH   4   5
BRANCH   4  28
HETATM   28  C   UNK     0      -1.245  11.256  23.988  0.00  0.00     0.023 C 
HETATM   29  C   UNK     0      -0.467   9.954  23.853  0.00  0.00     0.007 C 
ENDBRANCH   4  28
ENDBRANCH   3   4
ENDBRANCH   1   3
TORSDOF 9
ENDMDL
MODEL 6
REMARK VINA RESULT:      -2.9      3.440      6.615
REMARK  9 active torsions:
REMARK  status: ('A' for Active; 'I' for Inactive)
REMARK    1  A    between atoms: O_1  and  C_18 
REMARK    2  A    between atoms: N_2  and  C_8 
REMARK    3  A    between atoms: N_3  and  C_9 
REMARK    4  A    between atoms: N_3  and  C_14 
REMARK    5  A    between atoms: N_7  and  C_13 
REMARK    6  A    between atoms: N_7  and  C_20 
REMARK    7  A    between atoms: C_9  and  C_12 
REMARK    8  A    between atoms: C_9  and  C_18 
REMARK    9  A    between atoms: C_20  and  C_21 
ROOT
HETATM    1  O   UNK     0      -5.641  14.555  24.656  0.00  0.00    -0.399 OA
HETATM    2  H   UNK     0      -5.103  13.871  24.220  0.00  0.00     0.209 HD
ENDROOT
BRANCH   1   3
HETATM    3  C   UNK     0      -6.848  13.939  25.087  0.00  0.00     0.189 C 
BRANCH   3   4
HETATM    4  C   UNK     0      -7.137  12.722  24.208  0.00  0.00     0.122 C 
BRANCH   4   5
HETATM    5  N   UNK     0      -6.098  12.615  23.202  0.00  0.00    -0.216 N 
HETATM    6  H   UNK     0      -5.921  13.399  22.583  0.00  0.00     0.178 HD
BRANCH   5   7
HETATM    7  C   UNK     0      -5.257  11.524  23.086  0.00  0.00     0.726 A 
HETATM    8  N   UNK     0      -5.737  10.327  23.535  0.00  0.00    -0.042 NA
HETATM    9  C   UNK     0      -4.841   9.343  23.372  0.00  0.00     0.183 A 
HETATM   10  N   UNK     0      -4.981   8.025  23.706  0.00  0.00    -0.320 N 
HETATM   11  C   UNK     0      -3.571   9.445  22.826  0.00  0.00     0.151 A 
HETATM   12  C   UNK     0      -3.815   7.396  23.358  0.00  0.00     0.212 A 
HETATM   13  N   UNK     0      -2.943   8.226  22.824  0.00  0.00    -0.236 NA
HETATM   14  C   UNK     0      -3.172  10.708  22.397  0.00  0.00     0.176 A 
HETATM   15  N   UNK     0      -4.027  11.750  22.531  0.00  0.00    -0.043 NA
BRANCH  10  16
HETATM   16  C   UNK     0      -6.134   7.405  24.312  0.00  0.00     0.084 C 
HETATM   17  C   UNK     0      -7.032   6.731  23.273  0.00  0.00     0.032 C 
HETATM   18  C   UNK     0      -5.742   6.439  25.431  0.00  0.00     0.032 C 
ENDBRANCH  10  16
BRANCH  14  19
HETATM   19  N   UNK     0      -1.900  10.904  21.831  0.00  0.00    -0.368 N 
HETATM   20  H   UNK     0      -1.661  10.334  21.027  0.00  0.00     0.161 HD
BRANCH  19  21
HETATM   21  C   UNK     0      -0.956  11.854  22.340  0.00  0.00     0.160 C 
BRANCH  21  22
HETATM   22  C   UNK     0      -0.862  13.045  21.428  0.00  0.00    -0.041 A 
HETATM   23  C   UNK     0      -0.225  14.198  21.871  0.00  0.00     0.009 A 
HETATM   24  C   UNK     0      -0.135  15.303  21.025  0.00  0.00     0.001 A 
HETATM   25  C   UNK     0      -0.686  15.247  19.744  0.00  0.00     0.000 A 
HETATM   26  C   UNK     0      -1.324  14.086  19.309  0.00  0.00     0.001 A 
HETATM   27  C   UNK     0      -1.412  12.980  20.155  0.00  0.00     0.009 A 
ENDBRANCH  21  22
ENDBRANCH  19  21
ENDBRANCH  14  19
ENDBRANCH   5   7
ENDBRANCH   4   5
BRANCH   4  28
HETATM   28  C   UNK     0      -8.507  12.850  23.530  0.00  0.00     0.023 C 
HETATM   29  C   UNK     0      -8.884  14.296  23.232  0.00  0.00     0.007 C 
ENDBRANCH   4  28
ENDBRANCH   3   4
ENDBRANCH   1   3
TORSDOF 9
ENDMDL
MODEL 7
REMARK VINA RESULT:      -2.8      2.519      4.550
REMARK  9 active torsions:
REMARK  status: ('A' for Active; 'I' for Inactive)
REMARK    1  A    between atoms: O_1  and  C_18 
REMARK    2  A    between atoms: N_2  and  C_8 
REMARK    3  A    between atoms: N_3  and  C_9 
REMARK    4  A    between atoms: N_3  and  C_14 
REMARK    5  A    between atoms: N_7  and  C_13 
REMARK    6  A    between atoms: N_7  and  C_20 
REMARK    7  A    between atoms: C_9  and  C_12 
REMARK    8  A    between atoms: C_9  and  C_18 
REMARK    9  A    between atoms: C_20  and  C_21 
ROOT
HETATM    1  O   UNK     0       1.665   8.990  18.883  0.00  0.00    -0.399 OA
HETATM    2  H   UNK     0       0.741   9.140  18.619  0.00  0.00     0.209 HD
ENDROOT
BRANCH   1   3
HETATM    3  C   UNK     0       2.175  10.224  19.376  0.00  0.00     0.189 C 
BRANCH   3   4
HETATM    4  C   UNK     0       1.524  11.380  18.617  0.00  0.00     0.122 C 
BRANCH   4   5
HETATM    5  N   UNK     0       0.133  11.477  19.019  0.00  0.00    -0.216 N 
HETATM    6  H   UNK     0      -0.483  10.683  18.882  0.00  0.00     0.178 HD
BRANCH   5   7
HETATM    7  C   UNK     0      -0.398  12.574  19.671  0.00  0.00     0.726 A 
HETATM    8  N   UNK     0      -0.606  12.451  21.015  0.00  0.00    -0.042 NA
HETATM    9  C   UNK     0      -1.120  13.572  21.541  0.00  0.00     0.183 A 
HETATM   10  N   UNK     0      -1.452  13.805  22.846  0.00  0.00    -0.320 N 
HETATM   11  C   UNK     0      -1.427  14.748  20.874  0.00  0.00     0.151 A 
HETATM   12  C   UNK     0      -1.938  15.083  22.915  0.00  0.00     0.212 A 
HETATM   13  N   UNK     0      -1.936  15.681  21.742  0.00  0.00    -0.236 NA
HETATM   14  C   UNK     0      -1.179  14.777  19.505  0.00  0.00     0.176 A 
HETATM   15  N   UNK     0      -0.660  13.678  18.906  0.00  0.00    -0.043 NA
BRANCH  10  16
HETATM   16  C   UNK     0      -1.321  12.883  23.948  0.00  0.00     0.084 C 
HETATM   17  C   UNK     0      -0.932  13.596  25.245  0.00  0.00     0.032 C 
HETATM   18  C   UNK     0      -2.574  12.026  24.129  0.00  0.00     0.032 C 
ENDBRANCH  10  16
BRANCH  14  19
HETATM   19  N   UNK     0      -1.460  15.928  18.749  0.00  0.00    -0.368 N 
HETATM   20  H   UNK     0      -1.396  16.821  19.227  0.00  0.00     0.161 HD
BRANCH  19  21
HETATM   21  C   UNK     0      -1.828  15.884  17.365  0.00  0.00     0.160 C 
BRANCH  21  22
HETATM   22  C   UNK     0      -3.290  16.193  17.197  0.00  0.00    -0.041 A 
HETATM   23  C   UNK     0      -3.945  15.800  16.036  0.00  0.00     0.009 A 
HETATM   24  C   UNK     0      -5.301  16.086  15.880  0.00  0.00     0.001 A 
HETATM   25  C   UNK     0      -5.990  16.765  16.886  0.00  0.00     0.000 A 
HETATM   26  C   UNK     0      -5.324  17.155  18.047  0.00  0.00     0.001 A 
HETATM   27  C   UNK     0      -3.968  16.868  18.204  0.00  0.00     0.009 A 
ENDBRANCH  21  22
ENDBRANCH  19  21
ENDBRANCH  14  19
ENDBRANCH   5   7
ENDBRANCH   4   5
BRANCH   4  28
HETATM   28  C   UNK     0       1.612  11.159  17.102  0.00  0.00     0.023 C 
HETATM   29  C   UNK     0       1.741  12.461  16.322  0.00  0.00     0.007 C 
ENDBRANCH   4  28
ENDBRANCH   3   4
ENDBRANCH   1   3
TORSDOF 9
ENDMDL
MODEL 8
REMARK VINA RESULT:      -2.7      4.074      7.599
REMARK  9 active torsions:
REMARK  status: ('A' for Active; 'I' for Inactive)
REMARK    1  A    between atoms: O_1  and  C_18 
REMARK    2  A    between atoms: N_2  and  C_8 
REMARK    3  A    between atoms: N_3  and  C_9 
REMARK    4  A    between atoms: N_3  and  C_14 
REMARK    5  A    between atoms: N_7  and  C_13 
REMARK    6  A    between atoms: N_7  and  C_20 
REMARK    7  A    between atoms: C_9  and  C_12 
REMARK    8  A    between atoms: C_9  and  C_18 
REMARK    9  A    between atoms: C_20  and  C_21 
ROOT
HETATM    1  O   UNK     0      -6.842  15.219  22.812  0.00  0.00    -0.399 OA
HETATM    2  H   UNK     0      -6.325  15.431  22.015  0.00  0.00     0.209 HD
ENDROOT
BRANCH   1   3
HETATM    3  C   UNK     0      -7.938  16.125  22.862  0.00  0.00     0.189 C 
BRANCH   3   4
HETATM    4  C   UNK     0      -8.342  16.512  21.440  0.00  0.00     0.122 C 
BRANCH   4   5
HETATM    5  N   UNK     0      -7.531  17.637  21.014  0.00  0.00    -0.216 N 
HETATM    6  H   UNK     0      -7.783  18.574  21.309  0.00  0.00     0.178 HD
BRANCH   5   7
HETATM    7  C   UNK     0      -6.362  17.502  20.289  0.00  0.00     0.726 A 
HETATM    8  N   UNK     0      -6.492  17.267  18.950  0.00  0.00    -0.042 NA
HETATM    9  C   UNK     0      -5.299  17.155  18.349  0.00  0.00     0.183 A 
HETATM   10  N   UNK     0      -5.050  16.921  17.026  0.00  0.00    -0.320 N 
HETATM   11  C   UNK     0      -4.049  17.256  18.940  0.00  0.00     0.151 A 
HETATM   12  C   UNK     0      -3.690  16.887  16.872  0.00  0.00     0.212 A 
HETATM   13  N   UNK     0      -3.055  17.086  18.009  0.00  0.00    -0.236 NA
HETATM   14  C   UNK     0      -4.019  17.497  20.310  0.00  0.00     0.176 A 
HETATM   15  N   UNK     0      -5.189  17.621  20.983  0.00  0.00    -0.043 NA
BRANCH  10  16
HETATM   16  C   UNK     0      -6.029  16.740  15.982  0.00  0.00     0.084 C 
HETATM   17  C   UNK     0      -5.965  17.857  14.938  0.00  0.00     0.032 C 
HETATM   18  C   UNK     0      -5.928  15.358  15.335  0.00  0.00     0.032 C 
ENDBRANCH  10  16
BRANCH  14  19
HETATM   19  N   UNK     0      -2.795  17.613  20.992  0.00  0.00    -0.368 N 
HETATM   20  H   UNK     0      -2.323  18.510  20.941  0.00  0.00     0.161 HD
BRANCH  19  21
HETATM   21  C   UNK     0      -2.207  16.537  21.732  0.00  0.00     0.160 C 
BRANCH  21  22
HETATM   22  C   UNK     0      -1.337  15.696  20.839  0.00  0.00    -0.041 A 
HETATM   23  C   UNK     0      -1.604  14.340  20.701  0.00  0.00     0.009 A 
HETATM   24  C   UNK     0      -0.798  13.560  19.872  0.00  0.00     0.001 A 
HETATM   25  C   UNK     0       0.271  14.143  19.190  0.00  0.00     0.000 A 
HETATM   26  C   UNK     0       0.531  15.505  19.336  0.00  0.00     0.001 A 
HETATM   27  C   UNK     0      -0.277  16.286  20.164  0.00  0.00     0.009 A 
ENDBRANCH  21  22
ENDBRANCH  19  21
ENDBRANCH  14  19
ENDBRANCH   5   7
ENDBRANCH   4   5
BRANCH   4  28
HETATM   28  C   UNK     0      -9.828  16.890  21.377  0.00  0.00     0.023 C 
HETATM   29  C   UNK     0     -10.266  17.328  19.986  0.00  0.00     0.007 C 
ENDBRANCH   4  28
ENDBRANCH   3   4
ENDBRANCH   1   3
TORSDOF 9
ENDMDL
MODEL 9
REMARK VINA RESULT:      -2.7      3.313      6.748
REMARK  9 active torsions:
REMARK  status: ('A' for Active; 'I' for Inactive)
REMARK    1  A    between atoms: O_1  and  C_18 
REMARK    2  A    between atoms: N_2  and  C_8 
REMARK    3  A    between atoms: N_3  and  C_9 
REMARK    4  A    between atoms: N_3  and  C_14 
REMARK    5  A    between atoms: N_7  and  C_13 
REMARK    6  A    between atoms: N_7  and  C_20 
REMARK    7  A    between atoms: C_9  and  C_12 
REMARK    8  A    between atoms: C_9  and  C_18 
REMARK    9  A    between atoms: C_20  and  C_21 
ROOT
HETATM    1  O   UNK     0       0.275  11.341  18.697  0.00  0.00    -0.399 OA
HETATM    2  H   UNK     0       0.090  11.317  17.742  0.00  0.00     0.209 HD
ENDROOT
BRANCH   1   3
HETATM    3  C   UNK     0       0.479  12.702  19.059  0.00  0.00     0.189 C 
BRANCH   3   4
HETATM    4  C   UNK     0      -0.648  13.154  19.988  0.00  0.00     0.122 C 
BRANCH   4   5
HETATM    5  N   UNK     0      -1.495  12.014  20.284  0.00  0.00    -0.216 N 
HETATM    6  H   UNK     0      -1.677  11.327  19.560  0.00  0.00     0.178 HD
BRANCH   5   7
HETATM    7  C   UNK     0      -2.009  11.752  21.539  0.00  0.00     0.726 A 
HETATM    8  N   UNK     0      -1.107  11.589  22.552  0.00  0.00    -0.042 NA
HETATM    9  C   UNK     0      -1.716  11.342  23.721  0.00  0.00     0.183 A 
HETATM   10  N   UNK     0      -1.130  11.129  24.937  0.00  0.00    -0.320 N 
HETATM   11  C   UNK     0      -3.079  11.249  23.954  0.00  0.00     0.151 A 
HETATM   12  C   UNK     0      -2.139  10.918  25.839  0.00  0.00     0.212 A 
HETATM   13  N   UNK     0      -3.329  10.984  25.277  0.00  0.00    -0.236 NA
HETATM   14  C   UNK     0      -3.918  11.429  22.859  0.00  0.00     0.176 A 
HETATM   15  N   UNK     0      -3.371  11.682  21.645  0.00  0.00    -0.043 NA
BRANCH  10  16
HETATM   16  C   UNK     0       0.283  11.124  25.226  0.00  0.00     0.084 C 
HETATM   17  C   UNK     0       0.789  12.511  25.629  0.00  0.00     0.032 C 
HETATM   18  C   UNK     0       0.651  10.066  26.267  0.00  0.00     0.032 C 
ENDBRANCH  10  16
BRANCH  14  19
HETATM   19  N   UNK     0      -5.314  11.351  23.003  0.00  0.00    -0.368 N 
HETATM   20  H   UNK     0      -5.755  10.474  22.748  0.00  0.00     0.161 HD
BRANCH  19  21
HETATM   21  C   UNK     0      -6.112  12.441  23.481  0.00  0.00     0.160 C 
BRANCH  21  22
HETATM   22  C   UNK     0      -7.414  11.937  24.038  0.00  0.00    -0.041 A 
HETATM   23  C   UNK     0      -7.437  10.753  24.765  0.00  0.00     0.009 A 
HETATM   24  C   UNK     0      -8.644  10.286  25.283  0.00  0.00     0.001 A 
HETATM   25  C   UNK     0      -9.819  11.006  25.069  0.00  0.00     0.000 A 
HETATM   26  C   UNK     0      -9.787  12.193  24.339  0.00  0.00     0.001 A 
HETATM   27  C   UNK     0      -8.579  12.661  23.821  0.00  0.00     0.009 A 
ENDBRANCH  21  22
ENDBRANCH  19  21
ENDBRANCH  14  19
ENDBRANCH   5   7
ENDBRANCH   4   5
BRANCH   4  28
HETATM   28  C   UNK     0      -1.481  14.265  19.336  0.00  0.00     0.023 C 
HETATM   29  C   UNK     0      -0.742  14.968  18.203  0.00  0.00     0.007 C 
ENDBRANCH   4  28
ENDBRANCH   3   4
ENDBRANCH   1   3
TORSDOF 9
ENDMDL
