MODEL 1
REMARK VINA RESULT:      -3.0      0.000      0.000
REMARK  9 active torsions:
REMARK  status: ('A' for Active; 'I' for Inactive)
REMARK    1  A    between atoms: O_1  and  C_18 
REMARK    2  A    between atoms: N_2  and  C_8 
REMARK    3  A    between atoms: N_3  and  C_9 
REMARK    4  A    between atoms: N_3  and  C_14 
REMARK    5  A    between atoms: N_7  and  C_13 
REMARK    6  A    between atoms: N_7  and  C_20 
REMARK    7  A    between atoms: C_9  and  C_12 
REMARK    8  A    between atoms: C_9  and  C_18 
REMARK    9  A    between atoms: C_20  and  C_21 
ROOT
HETATM    1  O   UNK     0      -2.758  16.255  20.640  0.00  0.00    -0.399 OA
HETATM    2  H   UNK     0      -3.346  16.715  21.264  0.00  0.00     0.209 HD
ENDROOT
BRANCH   1   3
HETATM    3  C   UNK     0      -2.860  16.920  19.386  0.00  0.00     0.189 C 
BRANCH   3   4
HETATM    4  C   UNK     0      -2.743  15.896  18.258  0.00  0.00     0.122 C 
BRANCH   4   5
HETATM    5  N   UNK     0      -1.338  15.700  17.949  0.00  0.00    -0.216 N 
HETATM    6  H   UNK     0      -0.832  16.423  17.450  0.00  0.00     0.178 HD
BRANCH   5   7
HETATM    7  C   UNK     0      -0.610  14.607  18.377  0.00  0.00     0.726 A 
HETATM    8  N   UNK     0       0.646  14.463  17.861  0.00  0.00    -0.042 NA
HETATM    9  C   UNK     0       1.259  13.374  18.345  0.00  0.00     0.183 A 
HETATM   10  N   UNK     0       2.515  12.923  18.051  0.00  0.00    -0.320 N 
HETATM   11  C   UNK     0       0.752  12.461  19.257  0.00  0.00     0.151 A 
HETATM   12  C   UNK     0       2.713  11.780  18.778  0.00  0.00     0.212 A 
HETATM   13  N   UNK     0       1.668  11.473  19.518  0.00  0.00    -0.236 NA
HETATM   14  C   UNK     0      -0.538  12.693  19.726  0.00  0.00     0.176 A 
HETATM   15  N   UNK     0      -1.217  13.776  19.279  0.00  0.00    -0.043 NA
BRANCH  10  16
HETATM   16  C   UNK     0       3.460  13.530  17.145  0.00  0.00     0.084 C 
HETATM   17  C   UNK     0       4.409  14.489  17.866  0.00  0.00     0.032 C 
HETATM   18  C   UNK     0       4.225  12.484  16.332  0.00  0.00     0.032 C 
ENDBRANCH  10  16
BRANCH  14  19
HETATM   19  N   UNK     0      -1.132  11.818  20.653  0.00  0.00    -0.368 N 
HETATM   20  H   UNK     0      -1.351  10.882  20.329  0.00  0.00     0.161 HD
BRANCH  19  21
HETATM   21  C   UNK     0      -1.434  12.196  22.002  0.00  0.00     0.160 C 
BRANCH  21  22
HETATM   22  C   UNK     0      -2.885  11.946  22.308  0.00  0.00    -0.041 A 
HETATM   23  C   UNK     0      -3.499  12.649  23.337  0.00  0.00     0.009 A 
HETATM   24  C   UNK     0      -4.845  12.418  23.621  0.00  0.00     0.001 A 
HETATM   25  C   UNK     0      -5.564  11.485  22.873  0.00  0.00     0.000 A 
HETATM   26  C   UNK     0      -4.939  10.785  21.843  0.00  0.00     0.001 A 
HETATM   27  C   UNK     0      -3.593  11.017  21.558  0.00  0.00     0.009 A 
ENDBRANCH  21  22
ENDBRANCH  19  21
ENDBRANCH  14  19
ENDBRANCH   5   7
ENDBRANCH   4   5
BRANCH   4  28
HETATM   28  C   UNK     0      -3.488  16.376  17.005  0.00  0.00     0.023 C 
HETATM   29  C   UNK     0      -3.172  15.536  15.774  0.00  0.00     0.007 C 
ENDBRANCH   4  28
ENDBRANCH   3   4
ENDBRANCH   1   3
TORSDOF 9
ENDMDL
MODEL 2
REMARK VINA RESULT:      -2.9      1.667      5.278
REMARK  9 active torsions:
REMARK  status: ('A' for Active; 'I' for Inactive)
REMARK    1  A    between atoms: O_1  and  C_18 
REMARK    2  A    between atoms: N_2  and  C_8 
REMARK    3  A    between atoms: N_3  and  C_9 
REMARK    4  A    between atoms: N_3  and  C_14 
REMARK    5  A    between atoms: N_7  and  C_13 
REMARK    6  A    between atoms: N_7  and  C_20 
REMARK    7  A    between atoms: C_9  and  C_12 
REMARK    8  A    between atoms: C_9  and  C_18 
REMARK    9  A    between atoms: C_20  and  C_21 
ROOT
HETATM    1  O   UNK     0      -3.501  10.550  21.296  0.00  0.00    -0.399 OA
HETATM    2  H   UNK     0      -2.672  10.390  20.810  0.00  0.00     0.209 HD
ENDROOT
BRANCH   1   3
HETATM    3  C   UNK     0      -3.209  11.457  22.352  0.00  0.00     0.189 C 
BRANCH   3   4
HETATM    4  C   UNK     0      -2.117  12.427  21.901  0.00  0.00     0.122 C 
BRANCH   4   5
HETATM    5  N   UNK     0      -1.543  11.939  20.660  0.00  0.00    -0.216 N 
HETATM    6  H   UNK     0      -1.700  10.976  20.384  0.00  0.00     0.178 HD
BRANCH   5   7
HETATM    7  C   UNK     0      -0.856  12.742  19.771  0.00  0.00     0.726 A 
HETATM    8  N   UNK     0       0.353  12.283  19.333  0.00  0.00    -0.042 NA
HETATM    9  C   UNK     0       0.928  13.139  18.476  0.00  0.00     0.183 A 
HETATM   10  N   UNK     0       2.132  13.005  17.845  0.00  0.00    -0.320 N 
HETATM   11  C   UNK     0       0.423  14.354  18.039  0.00  0.00     0.151 A 
HETATM   12  C   UNK     0       2.306  14.120  17.069  0.00  0.00     0.212 A 
HETATM   13  N   UNK     0       1.292  14.955  17.163  0.00  0.00    -0.236 NA
HETATM   14  C   UNK     0      -0.817  14.736  18.541  0.00  0.00     0.176 A 
HETATM   15  N   UNK     0      -1.456  13.919  19.413  0.00  0.00    -0.043 NA
BRANCH  10  16
HETATM   16  C   UNK     0       3.053  11.902  17.968  0.00  0.00     0.084 C 
HETATM   17  C   UNK     0       3.652  11.505  16.617  0.00  0.00     0.032 C 
HETATM   18  C   UNK     0       4.140  12.177  19.008  0.00  0.00     0.032 C 
ENDBRANCH  10  16
BRANCH  14  19
HETATM   19  N   UNK     0      -1.405  15.953  18.153  0.00  0.00    -0.368 N 
HETATM   20  H   UNK     0      -0.942  16.473  17.414  0.00  0.00     0.161 HD
BRANCH  19  21
HETATM   21  C   UNK     0      -2.599  16.470  18.751  0.00  0.00     0.160 C 
BRANCH  21  22
HETATM   22  C   UNK     0      -3.732  16.460  17.762  0.00  0.00    -0.041 A 
HETATM   23  C   UNK     0      -4.939  17.062  18.096  0.00  0.00     0.009 A 
HETATM   24  C   UNK     0      -5.990  17.054  17.180  0.00  0.00     0.001 A 
HETATM   25  C   UNK     0      -5.825  16.442  15.937  0.00  0.00     0.000 A 
HETATM   26  C   UNK     0      -4.611  15.840  15.611  0.00  0.00     0.001 A 
HETATM   27  C   UNK     0      -3.559  15.849  16.527  0.00  0.00     0.009 A 
ENDBRANCH  21  22
ENDBRANCH  19  21
ENDBRANCH  14  19
ENDBRANCH   5   7
ENDBRANCH   4   5
BRANCH   4  28
HETATM   28  C   UNK     0      -1.021  12.550  22.967  0.00  0.00     0.023 C 
HETATM   29  C   UNK     0      -0.262  11.248  23.186  0.00  0.00     0.007 C 
ENDBRANCH   4  28
ENDBRANCH   3   4
ENDBRANCH   1   3
TORSDOF 9
ENDMDL
MODEL 3
REMARK VINA RESULT:      -2.9      2.121      5.354
REMARK  9 active torsions:
REMARK  status: ('A' for Active; 'I' for Inactive)
REMARK    1  A    between atoms: O_1  and  C_18 
REMARK    2  A    between atoms: N_2  and  C_8 
REMARK    3  A    between atoms: N_3  and  C_9 
REMARK    4  A    between atoms: N_3  and  C_14 
REMARK    5  A    between atoms: N_7  and  C_13 
REMARK    6  A    between atoms: N_7  and  C_20 
REMARK    7  A    between atoms: C_9  and  C_12 
REMARK    8  A    between atoms: C_9  and  C_18 
REMARK    9  A    between atoms: C_20  and  C_21 
ROOT
HETATM    1  O   UNK     0       0.115  10.975  21.656  0.00  0.00    -0.399 OA
HETATM    2  H   UNK     0      -0.295  10.627  20.845  0.00  0.00     0.209 HD
ENDROOT
BRANCH   1   3
HETATM    3  C   UNK     0      -0.932  11.450  22.494  0.00  0.00     0.189 C 
BRANCH   3   4
HETATM    4  C   UNK     0      -2.091  11.941  21.628  0.00  0.00     0.122 C 
BRANCH   4   5
HETATM    5  N   UNK     0      -1.923  13.362  21.385  0.00  0.00    -0.216 N 
HETATM    6  H   UNK     0      -2.308  14.030  22.045  0.00  0.00     0.178 HD
BRANCH   5   7
HETATM    7  C   UNK     0      -1.182  13.874  20.338  0.00  0.00     0.726 A 
HETATM    8  N   UNK     0       0.169  13.957  20.522  0.00  0.00    -0.042 NA
HETATM    9  C   UNK     0       0.785  14.465  19.444  0.00  0.00     0.183 A 
HETATM   10  N   UNK     0       2.122  14.688  19.277  0.00  0.00    -0.320 N 
HETATM   11  C   UNK     0       0.198  14.874  18.257  0.00  0.00     0.151 A 
HETATM   12  C   UNK     0       2.288  15.215  18.023  0.00  0.00     0.212 A 
HETATM   13  N   UNK     0       1.146  15.339  17.381  0.00  0.00    -0.236 NA
HETATM   14  C   UNK     0      -1.185  14.750  18.164  0.00  0.00     0.176 A 
HETATM   15  N   UNK     0      -1.873  14.245  19.217  0.00  0.00    -0.043 NA
BRANCH  10  16
HETATM   16  C   UNK     0       3.169  14.425  20.234  0.00  0.00     0.084 C 
HETATM   17  C   UNK     0       3.680  12.986  20.141  0.00  0.00     0.032 C 
HETATM   18  C   UNK     0       4.310  15.437  20.127  0.00  0.00     0.032 C 
ENDBRANCH  10  16
BRANCH  14  19
HETATM   19  N   UNK     0      -1.864  15.141  16.997  0.00  0.00    -0.368 N 
HETATM   20  H   UNK     0      -2.039  14.421  16.303  0.00  0.00     0.161 HD
BRANCH  19  21
HETATM   21  C   UNK     0      -2.302  16.484  16.760  0.00  0.00     0.160 C 
BRANCH  21  22
HETATM   22  C   UNK     0      -3.785  16.602  16.974  0.00  0.00    -0.041 A 
HETATM   23  C   UNK     0      -4.267  17.073  18.188  0.00  0.00     0.009 A 
HETATM   24  C   UNK     0      -5.643  17.184  18.387  0.00  0.00     0.001 A 
HETATM   25  C   UNK     0      -6.526  16.821  17.369  0.00  0.00     0.000 A 
HETATM   26  C   UNK     0      -6.032  16.349  16.153  0.00  0.00     0.001 A 
HETATM   27  C   UNK     0      -4.656  16.239  15.954  0.00  0.00     0.009 A 
ENDBRANCH  21  22
ENDBRANCH  19  21
ENDBRANCH  14  19
ENDBRANCH   5   7
ENDBRANCH   4   5
BRANCH   4  28
HETATM   28  C   UNK     0      -3.437  11.688  22.321  0.00  0.00     0.023 C 
HETATM   29  C   UNK     0      -4.342  10.754  21.527  0.00  0.00     0.007 C 
ENDBRANCH   4  28
ENDBRANCH   3   4
ENDBRANCH   1   3
TORSDOF 9
ENDMDL
MODEL 4
REMARK VINA RESULT:      -2.9      1.996      5.683
REMARK  9 active torsions:
REMARK  status: ('A' for Active; 'I' for Inactive)
REMARK    1  A    between atoms: O_1  and  C_18 
REMARK    2  A    between atoms: N_2  and  C_8 
REMARK    3  A    between atoms: N_3  and  C_9 
REMARK    4  A    between atoms: N_3  and  C_14 
REMARK    5  A    between atoms: N_7  and  C_13 
REMARK    6  A    between atoms: N_7  and  C_20 
REMARK    7  A    between atoms: C_9  and  C_12 
REMARK    8  A    between atoms: C_9  and  C_18 
REMARK    9  A    between atoms: C_20  and  C_21 
ROOT
HETATM    1  O   UNK     0      -1.922  11.813  24.265  0.00  0.00    -0.399 OA
HETATM    2  H   UNK     0      -1.578  12.391  23.562  0.00  0.00     0.209 HD
ENDROOT
BRANCH   1   3
HETATM    3  C   UNK     0      -3.147  11.258  23.800  0.00  0.00     0.189 C 
BRANCH   3   4
HETATM    4  C   UNK     0      -3.109  11.152  22.276  0.00  0.00     0.122 C 
BRANCH   4   5
HETATM    5  N   UNK     0      -2.665  12.422  21.732  0.00  0.00    -0.216 N 
HETATM    6  H   UNK     0      -3.195  13.263  21.931  0.00  0.00     0.178 HD
BRANCH   5   7
HETATM    7  C   UNK     0      -1.493  12.576  21.016  0.00  0.00     0.726 A 
HETATM    8  N   UNK     0      -0.380  11.964  21.518  0.00  0.00    -0.042 NA
HETATM    9  C   UNK     0       0.694  12.179  20.744  0.00  0.00     0.183 A 
HETATM   10  N   UNK     0       1.966  11.722  20.939  0.00  0.00    -0.320 N 
HETATM   11  C   UNK     0       0.749  12.914  19.570  0.00  0.00     0.151 A 
HETATM   12  C   UNK     0       2.726  12.189  19.899  0.00  0.00     0.212 A 
HETATM   13  N   UNK     0       2.021  12.913  19.054  0.00  0.00    -0.236 NA
HETATM   14  C   UNK     0      -0.438  13.499  19.139  0.00  0.00     0.176 A 
HETATM   15  N   UNK     0      -1.563  13.324  19.872  0.00  0.00    -0.043 NA
BRANCH  10  16
HETATM   16  C   UNK     0       2.432  10.903  22.031  0.00  0.00     0.084 C 
HETATM   17  C   UNK     0       2.299   9.410  21.724  0.00  0.00     0.032 C 
HETATM   18  C   UNK     0       3.857  11.267  22.453  0.00  0.00     0.032 C 
ENDBRANCH  10  16
BRANCH  14  19
HETATM   19  N   UNK     0      -0.474  14.262  17.959  0.00  0.00    -0.368 N 
HETATM   20  H   UNK     0      -0.273  13.778  17.090  0.00  0.00     0.161 HD
BRANCH  19  21
HETATM   21  C   UNK     0      -0.774  15.663  17.942  0.00  0.00     0.160 C 
BRANCH  21  22
HETATM   22  C   UNK     0      -2.160  15.901  17.412  0.00  0.00    -0.041 A 
HETATM   23  C   UNK     0      -2.494  15.451  16.141  0.00  0.00     0.009 A 
HETATM   24  C   UNK     0      -3.781  15.670  15.649  0.00  0.00     0.001 A 
HETATM   25  C   UNK     0      -4.722  16.340  16.433  0.00  0.00     0.000 A 
HETATM   26  C   UNK     0      -4.377  16.787  17.707  0.00  0.00     0.001 A 
HETATM   27  C   UNK     0      -3.090  16.567  18.200  0.00  0.00     0.009 A 
ENDBRANCH  21  22
ENDBRANCH  19  21
ENDBRANCH  14  19
ENDBRANCH   5   7
ENDBRANCH   4   5
BRANCH   4  28
HETATM   28  C   UNK     0      -4.495  10.804  21.718  0.00  0.00     0.023 C 
HETATM   29  C   UNK     0      -5.058   9.514  22.302  0.00  0.00     0.007 C 
ENDBRANCH   4  28
ENDBRANCH   3   4
ENDBRANCH   1   3
TORSDOF 9
ENDMDL
MODEL 5
REMARK VINA RESULT:      -2.8      4.946      7.070
REMARK  9 active torsions:
REMARK  status: ('A' for Active; 'I' for Inactive)
REMARK    1  A    between atoms: O_1  and  C_18 
REMARK    2  A    between atoms: N_2  and  C_8 
REMARK    3  A    between atoms: N_3  and  C_9 
REMARK    4  A    between atoms: N_3  and  C_14 
REMARK    5  A    between atoms: N_7  and  C_13 
REMARK    6  A    between atoms: N_7  and  C_20 
REMARK    7  A    between atoms: C_9  and  C_12 
REMARK    8  A    between atoms: C_9  and  C_18 
REMARK    9  A    between atoms: C_20  and  C_21 
ROOT
HETATM    1  O   UNK     0      -7.292  14.933  25.776  0.00  0.00    -0.399 OA
HETATM    2  H   UNK     0      -7.322  15.858  25.474  0.00  0.00     0.209 HD
ENDROOT
BRANCH   1   3
HETATM    3  C   UNK     0      -6.178  14.314  25.144  0.00  0.00     0.189 C 
BRANCH   3   4
HETATM    4  C   UNK     0      -6.663  13.130  24.308  0.00  0.00     0.122 C 
BRANCH   4   5
HETATM    5  N   UNK     0      -5.709  12.890  23.241  0.00  0.00    -0.216 N 
HETATM    6  H   UNK     0      -5.547  13.610  22.545  0.00  0.00     0.178 HD
BRANCH   5   7
HETATM    7  C   UNK     0      -4.926  11.754  23.160  0.00  0.00     0.726 A 
HETATM    8  N   UNK     0      -3.573  11.935  23.195  0.00  0.00    -0.042 NA
HETATM    9  C   UNK     0      -2.916  10.769  23.111  0.00  0.00     0.183 A 
HETATM   10  N   UNK     0      -1.564  10.573  23.116  0.00  0.00    -0.320 N 
HETATM   11  C   UNK     0      -3.466   9.501  23.002  0.00  0.00     0.151 A 
HETATM   12  C   UNK     0      -1.353   9.223  23.010  0.00  0.00     0.212 A 
HETATM   13  N   UNK     0      -2.482   8.548  22.940  0.00  0.00    -0.236 NA
HETATM   14  C   UNK     0      -4.855   9.420  22.974  0.00  0.00     0.176 A 
HETATM   15  N   UNK     0      -5.584  10.559  23.055  0.00  0.00    -0.043 NA
BRANCH  10  16
HETATM   16  C   UNK     0      -0.544  11.588  23.213  0.00  0.00     0.084 C 
HETATM   17  C   UNK     0       0.636  11.132  24.074  0.00  0.00     0.032 C 
HETATM   18  C   UNK     0      -0.084  12.070  21.836  0.00  0.00     0.032 C 
ENDBRANCH  10  16
BRANCH  14  19
HETATM   19  N   UNK     0      -5.498   8.174  22.866  0.00  0.00    -0.368 N 
HETATM   20  H   UNK     0      -5.569   7.772  21.937  0.00  0.00     0.161 HD
BRANCH  19  21
HETATM   21  C   UNK     0      -6.047   7.477  23.990  0.00  0.00     0.160 C 
BRANCH  21  22
HETATM   22  C   UNK     0      -7.546   7.581  23.997  0.00  0.00    -0.041 A 
HETATM   23  C   UNK     0      -8.162   8.565  24.761  0.00  0.00     0.009 A 
HETATM   24  C   UNK     0      -9.553   8.663  24.766  0.00  0.00     0.001 A 
HETATM   25  C   UNK     0     -10.317   7.775  24.008  0.00  0.00     0.000 A 
HETATM   26  C   UNK     0      -9.690   6.791  23.244  0.00  0.00     0.001 A 
HETATM   27  C   UNK     0      -8.298   6.694  23.238  0.00  0.00     0.009 A 
ENDBRANCH  21  22
ENDBRANCH  19  21
ENDBRANCH  14  19
ENDBRANCH   5   7
ENDBRANCH   4   5
BRANCH   4  28
HETATM   28  C   UNK     0      -8.048  13.414  23.712  0.00  0.00     0.023 C 
HETATM   29  C   UNK     0      -9.064  12.327  24.040  0.00  0.00     0.007 C 
ENDBRANCH   4  28
ENDBRANCH   3   4
ENDBRANCH   1   3
TORSDOF 9
ENDMDL
MODEL 6
REMARK VINA RESULT:      -2.7      4.055      8.646
REMARK  9 active torsions:
REMARK  status: ('A' for Active; 'I' for Inactive)
REMARK    1  A    between atoms: O_1  and  C_18 
REMARK    2  A    between atoms: N_2  and  C_8 
REMARK    3  A    between atoms: N_3  and  C_9 
REMARK    4  A    between atoms: N_3  and  C_14 
REMARK    5  A    between atoms: N_7  and  C_13 
REMARK    6  A    between atoms: N_7  and  C_20 
REMARK    7  A    between atoms: C_9  and  C_12 
REMARK    8  A    between atoms: C_9  and  C_18 
REMARK    9  A    between atoms: C_20  and  C_21 
ROOT
HETATM    1  O   UNK     0      -9.175  13.764  22.139  0.00  0.00    -0.399 OA
HETATM    2  H   UNK     0      -8.411  14.309  21.880  0.00  0.00     0.209 HD
ENDROOT
BRANCH   1   3
HETATM    3  C   UNK     0      -8.974  13.360  23.488  0.00  0.00     0.189 C 
BRANCH   3   4
HETATM    4  C   UNK     0      -7.586  13.805  23.949  0.00  0.00     0.122 C 
BRANCH   4   5
HETATM    5  N   UNK     0      -6.961  12.711  24.669  0.00  0.00    -0.216 N 
HETATM    6  H   UNK     0      -7.075  12.646  25.674  0.00  0.00     0.178 HD
BRANCH   5   7
HETATM    7  C   UNK     0      -6.278  11.682  24.049  0.00  0.00     0.726 A 
HETATM    8  N   UNK     0      -6.628  10.410  24.402  0.00  0.00    -0.042 NA
HETATM    9  C   UNK     0      -5.905   9.496  23.739  0.00  0.00     0.183 A 
HETATM   10  N   UNK     0      -5.986   8.136  23.841  0.00  0.00    -0.320 N 
HETATM   11  C   UNK     0      -4.912   9.730  22.800  0.00  0.00     0.151 A 
HETATM   12  C   UNK     0      -5.058   7.612  22.980  0.00  0.00     0.212 A 
HETATM   13  N   UNK     0      -4.393   8.548  22.335  0.00  0.00    -0.236 NA
HETATM   14  C   UNK     0      -4.627  11.060  22.507  0.00  0.00     0.176 A 
HETATM   15  N   UNK     0      -5.319  12.038  23.140  0.00  0.00    -0.043 NA
BRANCH  10  16
HETATM   16  C   UNK     0      -6.875   7.384  24.692  0.00  0.00     0.084 C 
HETATM   17  C   UNK     0      -6.642   7.689  26.173  0.00  0.00     0.032 C 
HETATM   18  C   UNK     0      -8.341   7.577  24.301  0.00  0.00     0.032 C 
ENDBRANCH  10  16
BRANCH  14  19
HETATM   19  N   UNK     0      -3.635  11.391  21.567  0.00  0.00    -0.368 N 
HETATM   20  H   UNK     0      -3.925  11.463  20.597  0.00  0.00     0.161 HD
BRANCH  19  21
HETATM   21  C   UNK     0      -2.266  11.619  21.922  0.00  0.00     0.160 C 
BRANCH  21  22
HETATM   22  C   UNK     0      -1.751  12.870  21.267  0.00  0.00    -0.041 A 
HETATM   23  C   UNK     0      -1.356  12.834  19.936  0.00  0.00     0.009 A 
HETATM   24  C   UNK     0      -0.879  13.994  19.327  0.00  0.00     0.001 A 
HETATM   25  C   UNK     0      -0.801  15.182  20.056  0.00  0.00     0.000 A 
HETATM   26  C   UNK     0      -1.200  15.208  21.391  0.00  0.00     0.001 A 
HETATM   27  C   UNK     0      -1.678  14.047  22.000  0.00  0.00     0.009 A 
ENDBRANCH  21  22
ENDBRANCH  19  21
ENDBRANCH  14  19
ENDBRANCH   5   7
ENDBRANCH   4   5
BRANCH   4  28
HETATM   28  C   UNK     0      -7.680  15.038  24.856  0.00  0.00     0.023 C 
HETATM   29  C   UNK     0      -7.519  16.346  24.092  0.00  0.00     0.007 C 
ENDBRANCH   4  28
ENDBRANCH   3   4
ENDBRANCH   1   3
TORSDOF 9
ENDMDL
MODEL 7
REMARK VINA RESULT:      -2.6      7.241      9.933
REMARK  9 active torsions:
REMARK  status: ('A' for Active; 'I' for Inactive)
REMARK    1  A    between atoms: O_1  and  C_18 
REMARK    2  A    between atoms: N_2  and  C_8 
REMARK    3  A    between atoms: N_3  and  C_9 
REMARK    4  A    between atoms: N_3  and  C_14 
REMARK    5  A    between atoms: N_7  and  C_13 
REMARK    6  A    between atoms: N_7  and  C_20 
REMARK    7  A    between atoms: C_9  and  C_12 
REMARK    8  A    between atoms: C_9  and  C_18 
REMARK    9  A    between atoms: C_20  and  C_21 
ROOT
HETATM    1  O   UNK     0      -9.657  14.159  19.947  0.00  0.00    -0.399 OA
HETATM    2  H   UNK     0      -8.783  14.391  20.308  0.00  0.00     0.209 HD
ENDROOT
BRANCH   1   3
HETATM    3  C   UNK     0     -10.624  14.951  20.625  0.00  0.00     0.189 C 
BRANCH   3   4
HETATM    4  C   UNK     0     -10.016  15.497  21.918  0.00  0.00     0.122 C 
BRANCH   4   5
HETATM    5  N   UNK     0     -10.269  14.550  22.988  0.00  0.00    -0.216 N 
HETATM    6  H   UNK     0     -11.186  14.519  23.419  0.00  0.00     0.178 HD
BRANCH   5   7
HETATM    7  C   UNK     0      -9.348  13.610  23.407  0.00  0.00     0.726 A 
HETATM    8  N   UNK     0      -9.845  12.462  23.954  0.00  0.00    -0.042 NA
HETATM    9  C   UNK     0      -8.865  11.624  24.323  0.00  0.00     0.183 A 
HETATM   10  N   UNK     0      -8.994  10.393  24.900  0.00  0.00    -0.320 N 
HETATM   11  C   UNK     0      -7.499  11.823  24.196  0.00  0.00     0.151 A 
HETATM   12  C   UNK     0      -7.729   9.906  25.098  0.00  0.00     0.212 A 
HETATM   13  N   UNK     0      -6.803  10.746  24.684  0.00  0.00    -0.236 NA
HETATM   14  C   UNK     0      -7.089  13.025  23.626  0.00  0.00     0.176 A 
HETATM   15  N   UNK     0      -8.027  13.920  23.231  0.00  0.00    -0.043 NA
BRANCH  10  16
HETATM   16  C   UNK     0     -10.225   9.723  25.242  0.00  0.00     0.084 C 
HETATM   17  C   UNK     0     -10.369   8.384  24.515  0.00  0.00     0.032 C 
HETATM   18  C   UNK     0     -10.390   9.565  26.754  0.00  0.00     0.032 C 
ENDBRANCH  10  16
BRANCH  14  19
HETATM   19  N   UNK     0      -5.723  13.312  23.460  0.00  0.00    -0.368 N 
HETATM   20  H   UNK     0      -5.227  12.791  22.744  0.00  0.00     0.161 HD
BRANCH  19  21
HETATM   21  C   UNK     0      -5.027  14.284  24.248  0.00  0.00     0.160 C 
BRANCH  21  22
HETATM   22  C   UNK     0      -4.242  13.613  25.341  0.00  0.00    -0.041 A 
HETATM   23  C   UNK     0      -4.185  14.196  26.601  0.00  0.00     0.009 A 
HETATM   24  C   UNK     0      -3.458  13.574  27.616  0.00  0.00     0.001 A 
HETATM   25  C   UNK     0      -2.792  12.374  27.360  0.00  0.00     0.000 A 
HETATM   26  C   UNK     0      -2.855  11.797  26.093  0.00  0.00     0.001 A 
HETATM   27  C   UNK     0      -3.583  12.419  25.078  0.00  0.00     0.009 A 
ENDBRANCH  21  22
ENDBRANCH  19  21
ENDBRANCH  14  19
ENDBRANCH   5   7
ENDBRANCH   4   5
BRANCH   4  28
HETATM   28  C   UNK     0     -10.624  16.860  22.274  0.00  0.00     0.023 C 
HETATM   29  C   UNK     0     -10.060  17.996  21.431  0.00  0.00     0.007 C 
ENDBRANCH   4  28
ENDBRANCH   3   4
ENDBRANCH   1   3
TORSDOF 9
ENDMDL
MODEL 8
REMARK VINA RESULT:      -2.6      2.545      6.248
REMARK  9 active torsions:
REMARK  status: ('A' for Active; 'I' for Inactive)
REMARK    1  A    between atoms: O_1  and  C_18 
REMARK    2  A    between atoms: N_2  and  C_8 
REMARK    3  A    between atoms: N_3  and  C_9 
REMARK    4  A    between atoms: N_3  and  C_14 
REMARK    5  A    between atoms: N_7  and  C_13 
REMARK    6  A    between atoms: N_7  and  C_20 
REMARK    7  A    between atoms: C_9  and  C_12 
REMARK    8  A    between atoms: C_9  and  C_18 
REMARK    9  A    between atoms: C_20  and  C_21 
ROOT
HETATM    1  O   UNK     0      -4.660  10.178  20.779  0.00  0.00    -0.399 OA
HETATM    2  H   UNK     0      -3.694  10.158  20.666  0.00  0.00     0.209 HD
ENDROOT
BRANCH   1   3
HETATM    3  C   UNK     0      -4.926  10.269  22.173  0.00  0.00     0.189 C 
BRANCH   3   4
HETATM    4  C   UNK     0      -4.382  11.593  22.708  0.00  0.00     0.122 C 
BRANCH   4   5
HETATM    5  N   UNK     0      -3.022  11.386  23.171  0.00  0.00    -0.216 N 
HETATM    6  H   UNK     0      -2.863  10.989  24.090  0.00  0.00     0.178 HD
BRANCH   5   7
HETATM    7  C   UNK     0      -1.907  11.620  22.388  0.00  0.00     0.726 A 
HETATM    8  N   UNK     0      -0.721  11.116  22.840  0.00  0.00    -0.042 NA
HETATM    9  C   UNK     0       0.288  11.400  22.004  0.00  0.00     0.183 A 
HETATM   10  N   UNK     0       1.603  11.055  22.138  0.00  0.00    -0.320 N 
HETATM   11  C   UNK     0       0.218  12.108  20.814  0.00  0.00     0.151 A 
HETATM   12  C   UNK     0       2.264  11.559  21.049  0.00  0.00     0.212 A 
HETATM   13  N   UNK     0       1.456  12.200  20.230  0.00  0.00    -0.236 NA
HETATM   14  C   UNK     0      -1.035  12.582  20.438  0.00  0.00     0.176 A 
HETATM   15  N   UNK     0      -2.101  12.332  21.236  0.00  0.00    -0.043 NA
BRANCH  10  16
HETATM   16  C   UNK     0       2.194  10.305  23.219  0.00  0.00     0.084 C 
HETATM   17  C   UNK     0       2.170   8.799  22.950  0.00  0.00     0.032 C 
HETATM   18  C   UNK     0       3.603  10.796  23.553  0.00  0.00     0.032 C 
ENDBRANCH  10  16
BRANCH  14  19
HETATM   19  N   UNK     0      -1.199  13.310  19.247  0.00  0.00    -0.368 N 
HETATM   20  H   UNK     0      -1.144  12.790  18.378  0.00  0.00     0.161 HD
BRANCH  19  21
HETATM   21  C   UNK     0      -1.429  14.724  19.220  0.00  0.00     0.160 C 
BRANCH  21  22
HETATM   22  C   UNK     0      -1.572  15.209  17.804  0.00  0.00    -0.041 A 
HETATM   23  C   UNK     0      -2.826  15.567  17.326  0.00  0.00     0.009 A 
HETATM   24  C   UNK     0      -2.959  16.018  16.013  0.00  0.00     0.001 A 
HETATM   25  C   UNK     0      -1.836  16.106  15.189  0.00  0.00     0.000 A 
HETATM   26  C   UNK     0      -0.582  15.745  15.679  0.00  0.00     0.001 A 
HETATM   27  C   UNK     0      -0.449  15.294  16.992  0.00  0.00     0.009 A 
ENDBRANCH  21  22
ENDBRANCH  19  21
ENDBRANCH  14  19
ENDBRANCH   5   7
ENDBRANCH   4   5
BRANCH   4  28
HETATM   28  C   UNK     0      -5.249  12.115  23.861  0.00  0.00     0.023 C 
HETATM   29  C   UNK     0      -5.064  13.606  24.110  0.00  0.00     0.007 C 
ENDBRANCH   4  28
ENDBRANCH   3   4
ENDBRANCH   1   3
TORSDOF 9
ENDMDL
MODEL 9
REMARK VINA RESULT:      -2.6      4.234      8.103
REMARK  9 active torsions:
REMARK  status: ('A' for Active; 'I' for Inactive)
REMARK    1  A    between atoms: O_1  and  C_18 
REMARK    2  A    between atoms: N_2  and  C_8 
REMARK    3  A    between atoms: N_3  and  C_9 
REMARK    4  A    between atoms: N_3  and  C_14 
REMARK    5  A    between atoms: N_7  and  C_13 
REMARK    6  A    between atoms: N_7  and  C_20 
REMARK    7  A    between atoms: C_9  and  C_12 
REMARK    8  A    between atoms: C_9  and  C_18 
REMARK    9  A    between atoms: C_20  and  C_21 
ROOT
HETATM    1  O   UNK     0      -4.757  14.757  23.470  0.00  0.00    -0.399 OA
HETATM    2  H   UNK     0      -5.125  15.427  22.867  0.00  0.00     0.209 HD
ENDROOT
BRANCH   1   3
HETATM    3  C   UNK     0      -5.638  14.654  24.583  0.00  0.00     0.189 C 
BRANCH   3   4
HETATM    4  C   UNK     0      -6.471  13.379  24.453  0.00  0.00     0.122 C 
BRANCH   4   5
HETATM    5  N   UNK     0      -6.157  12.743  23.187  0.00  0.00    -0.216 N 
HETATM    6  H   UNK     0      -6.489  13.160  22.324  0.00  0.00     0.178 HD
BRANCH   5   7
HETATM    7  C   UNK     0      -5.345  11.631  23.073  0.00  0.00     0.726 A 
HETATM    8  N   UNK     0      -5.876  10.437  23.470  0.00  0.00    -0.042 NA
HETATM    9  C   UNK     0      -5.003   9.431  23.315  0.00  0.00     0.183 A 
HETATM   10  N   UNK     0      -5.193   8.110  23.607  0.00  0.00    -0.320 N 
HETATM   11  C   UNK     0      -3.710   9.511  22.821  0.00  0.00     0.151 A 
HETATM   12  C   UNK     0      -4.033   7.456  23.286  0.00  0.00     0.212 A 
HETATM   13  N   UNK     0      -3.117   8.273  22.809  0.00  0.00    -0.236 NA
HETATM   14  C   UNK     0      -3.258  10.771  22.442  0.00  0.00     0.176 A 
HETATM   15  N   UNK     0      -4.088  11.835  22.572  0.00  0.00    -0.043 NA
BRANCH  10  16
HETATM   16  C   UNK     0      -6.386   7.509  24.151  0.00  0.00     0.084 C 
HETATM   17  C   UNK     0      -7.117   6.651  23.116  0.00  0.00     0.032 C 
HETATM   18  C   UNK     0      -6.098   6.724  25.432  0.00  0.00     0.032 C 
ENDBRANCH  10  16
BRANCH  14  19
HETATM   19  N   UNK     0      -1.961  10.945  21.930  0.00  0.00    -0.368 N 
HETATM   20  H   UNK     0      -1.274  10.237  22.166  0.00  0.00     0.161 HD
BRANCH  19  21
HETATM   21  C   UNK     0      -1.585  12.060  21.114  0.00  0.00     0.160 C 
BRANCH  21  22
HETATM   22  C   UNK     0      -0.697  13.000  21.879  0.00  0.00    -0.041 A 
HETATM   23  C   UNK     0      -1.249  14.115  22.498  0.00  0.00     0.009 A 
HETATM   24  C   UNK     0      -0.425  14.987  23.210  0.00  0.00     0.001 A 
HETATM   25  C   UNK     0       0.945  14.737  23.295  0.00  0.00     0.000 A 
HETATM   26  C   UNK     0       1.490  13.616  22.670  0.00  0.00     0.001 A 
HETATM   27  C   UNK     0       0.666  12.744  21.959  0.00  0.00     0.009 A 
ENDBRANCH  21  22
ENDBRANCH  19  21
ENDBRANCH  14  19
ENDBRANCH   5   7
ENDBRANCH   4   5
BRANCH   4  28
HETATM   28  C   UNK     0      -7.971  13.697  24.517  0.00  0.00     0.023 C 
HETATM   29  C   UNK     0      -8.836  12.565  23.978  0.00  0.00     0.007 C 
ENDBRANCH   4  28
ENDBRANCH   3   4
ENDBRANCH   1   3
TORSDOF 9
ENDMDL
